%chk=dithiophene.chk
%mem=16GB
%nprocshared=1
# wb97xd/6-31g(d,p) freq opt

dithiophene_disp

0 1
C -0.095392 0.721682 -0.070326
C -1.268141 1.431322 -0.261011
C -1.073216 2.841226 -0.200916
C 0.243634 3.188927 0.040295
S 1.268141 1.802503 0.200894
H -2.244258 0.960312 -0.471788
H -1.880993 3.562223 -0.331531
H 0.675381 4.179304 0.130765
C 0.095392 -0.721682 -0.070326
C 1.268141 -1.431322 -0.261011
S -1.268141 -1.802503 0.200894
C 1.073216 -2.841226 -0.200916
H 2.244258 -0.960312 -0.471788
C -0.243634 -3.188927 0.040295
H 1.880993 -3.562223 -0.331531
H -0.675381 -4.179304 0.130765



